6

Cl     1.2113922338    0.0000072711   -0.0011351964
C     -1.6020084932   -0.0000608235   -0.0512927183
H     -1.2644784631    1.0265448353    0.1066552168
H     -1.2839109386   -0.6416395584    0.7729317739
H     -1.2321296605   -0.3848717385   -1.0042935031
Br    -3.6039746784    0.0000300140   -0.1067055729
